Circuit: * M:\Downloads\Modular_Projects\Moritz Klein\Draft1.asc

.OP point found by inspection.

Date: Mon Oct  2 12:57:06 2023
Total elapsed time: 0.138 seconds.

tnom = 27
temp = 27
method = modified trap
totiter = 2443
traniter = 2443
tranpoints = 1143
accept = 1101
rejected = 42
matrix size = 4
fillins = 0
solver = Normal
Avg thread counts: 2.1/3.4/3.3/2.1
Matrix Compiler1:       7 opcodes  0.2/[0.2]/0.2
Matrix Compiler2: off  [0.1]/0.2/0.3

