Circuit: * M:\Downloads\Modular_Projects\Moritz Klein\Draft2.asc

Unknown node in .ic card: "c1" -- ignoring
.OP point found by inspection.

Date: Thu Oct 12 17:21:31 2023
Total elapsed time: 0.132 seconds.

tnom = 27
temp = 27
method = modified trap
totiter = 2344
traniter = 2344
tranpoints = 1173
accept = 1146
rejected = 27
matrix size = 3
fillins = 0
solver = Normal
Avg thread counts: 2.2/3.3/3.3/2.2
Matrix Compiler1:       3 opcodes  0.1/[0.1]/0.1
Matrix Compiler2: off  [0.1]/0.1/0.1

